Master.dss
Clear
New Circuit.substation


Redirect LoadShape.DSS
Redirect Vsource.dss
Redirect WireData.dss
Redirect LineGeometry.dss
Redirect LoadShape.dss
Redirect GrowthShape.dss
Redirect TCC_Curve.dss
Redirect Spectrum.dss
Redirect Line.dss
Redirect Load.dss
Redirect Transformer.dss
Redirect SwtControl.dss
Redirect PVSystem.dss
Redirect Monitor.dss
MakeBusList
Redirect BusVoltageBases.dss  ! set voltage bases
Buscoords BusCoords.dss
GIScoords GISCoords.dss
